Version 4
SHEET 1 880 1144
WIRE 208 -256 64 -256
WIRE 416 -256 272 -256
WIRE 64 -144 64 -256
WIRE 64 -144 16 -144
WIRE 208 -144 64 -144
WIRE 416 -144 416 -256
WIRE 416 -144 288 -144
WIRE 496 -144 416 -144
WIRE 208 48 208 -16
WIRE 496 96 496 -144
WIRE 496 96 400 96
WIRE -192 144 -384 144
WIRE 16 144 16 -144
WIRE 16 144 -112 144
WIRE 96 144 16 144
WIRE -384 192 -384 144
WIRE 96 192 16 192
WIRE 96 240 16 240
WIRE 496 288 400 288
WIRE -384 336 -384 272
WIRE 208 400 208 336
WIRE -416 544 -528 544
WIRE 16 544 16 240
WIRE 16 544 -336 544
WIRE 64 544 16 544
WIRE 224 544 64 544
WIRE 416 544 304 544
WIRE 496 544 496 288
WIRE 496 544 416 544
WIRE 64 656 64 544
WIRE 224 656 64 656
WIRE 416 656 416 544
WIRE 416 656 288 656
WIRE -1600 976 -1600 912
WIRE -1456 976 -1456 912
WIRE -1344 976 -1344 912
WIRE -1600 1088 -1600 1056
WIRE -1456 1088 -1456 1056
WIRE -1456 1088 -1600 1088
WIRE -1344 1088 -1344 1056
WIRE -1344 1088 -1456 1088
WIRE -1600 1104 -1600 1088
FLAG 208 400 0
FLAG -1600 1104 0
FLAG -1600 912 +5V
FLAG 208 -16 +5V
FLAG -1456 912 +1V
FLAG -1344 912 +0.9V
FLAG 16 192 +1V
FLAG -528 544 +0.9V
FLAG -384 336 0
SYMBOL Opamps\\LTC6405 224 192 R0
SYMATTR InstName U1
SYMBOL res -96 128 R90
WINDOW 0 0 56 VBottom 2
WINDOW 3 32 56 VTop 2
SYMATTR InstName R1
SYMATTR Value 1k
SYMBOL res 192 -128 R270
WINDOW 0 32 56 VTop 2
WINDOW 3 0 56 VBottom 2
SYMATTR InstName R2
SYMATTR Value 1k
SYMBOL res 208 560 R270
WINDOW 0 32 56 VTop 2
WINDOW 3 0 56 VBottom 2
SYMATTR InstName R3
SYMATTR Value 1k
SYMBOL res -432 560 R270
WINDOW 0 32 56 VTop 2
WINDOW 3 0 56 VBottom 2
SYMATTR InstName R4
SYMATTR Value 1k
SYMBOL Misc\\battery -1600 960 R0
WINDOW 123 0 0 Left 0
WINDOW 39 0 0 Left 0
SYMATTR InstName V2
SYMATTR Value 5
SYMBOL Misc\\battery -1456 960 R0
WINDOW 123 0 0 Left 0
WINDOW 39 0 0 Left 0
SYMATTR InstName V3
SYMATTR Value 1
SYMBOL Misc\\battery -1344 960 R0
WINDOW 123 0 0 Left 0
WINDOW 39 0 0 Left 0
SYMATTR InstName V4
SYMATTR Value 1
SYMBOL Misc\\signal -384 176 R0
WINDOW 123 0 0 Left 0
WINDOW 39 0 0 Left 0
SYMATTR InstName V1
SYMATTR Value EXP(0 1 100n 10n 0 1u)
SYMBOL cap 272 -272 R90
WINDOW 0 0 32 VBottom 2
WINDOW 3 32 32 VTop 2
SYMATTR InstName C1
SYMATTR Value 1.8p
SYMBOL cap 288 640 R90
WINDOW 0 0 32 VBottom 2
WINDOW 3 32 32 VTop 2
SYMATTR InstName C2
SYMATTR Value 1.8p
TEXT -1634 1128 Left 2 !.tran 4u
